units(length='cm', time='s', quantity='mol', act_energy='kcal/mol')

ideal_gas(name='gas',
          elements="H D T C Ci O Oi N Ne Ar He Si S F Cl Br I X",
          species="""Ar      He      Ne      N2      H2      H       O2
                     CO      CH4     CH3OH   C2H6    H2O     CH2O    C2H4
                     CH3I    CH2I2   C3H8    OCX     OX      HX      CH3X
                     CH2X    CHX     HOX     H2OX    CH2OX   CH4X    CH3OHX
                     C2H6X   C3H8X   C2H4X  HCOOX   HCOXOX  CH3OX   HCOOHX""",
          initial_state=state(temperature=300.0, pressure=OneAtm))

#-------------------------------------------------------------------------------
# Element data
#-------------------------------------------------------------------------------

element(symbol='Ci', atomic_mass=13.003)
element(symbol='D', atomic_mass=2.014)
element(symbol='Oi', atomic_mass=17.999)
element(symbol='T', atomic_mass=3.016)
element(symbol='X', atomic_mass=195.083)
#-------------------------------------------------------------------------------
# Species data
#-------------------------------------------------------------------------------

species(name='Ar',
        atoms='Ar:1',
        thermo=(NASA([200.00, 1000.00],
                     [ 2.50000000E+00,  0.00000000E+00,  0.00000000E+00,
                       0.00000000E+00,  0.00000000E+00, -7.45375000E+02,
                       4.37967000E+00]),
                NASA([1000.00, 6000.00],
                     [ 2.50000000E+00,  0.00000000E+00,  0.00000000E+00,
                       0.00000000E+00,  0.00000000E+00, -7.45375000E+02,
                       4.37967000E+00])))

species(name='He',
        atoms='He:1',
        thermo=(NASA([200.00, 1000.00],
                     [ 2.50000000E+00,  0.00000000E+00,  0.00000000E+00,
                       0.00000000E+00,  0.00000000E+00, -7.45375000E+02,
                       9.28724000E-01]),
                NASA([1000.00, 6000.00],
                     [ 2.50000000E+00,  0.00000000E+00,  0.00000000E+00,
                       0.00000000E+00,  0.00000000E+00, -7.45375000E+02,
                       9.28724000E-01])))

species(name='Ne',
        atoms='Ne:1',
        thermo=(NASA([200.00, 1000.00],
                     [ 2.50000000E+00,  0.00000000E+00,  0.00000000E+00,
                       0.00000000E+00,  0.00000000E+00, -7.45375000E+02,
                       3.35532000E+00]),
                NASA([1000.00, 6000.00],
                     [ 2.50000000E+00,  0.00000000E+00,  0.00000000E+00,
                       0.00000000E+00,  0.00000000E+00, -7.45375000E+02,
                       3.35532000E+00])))

species(name='N2',
        atoms='N:2',
        thermo=(NASA([200.00, 1000.00],
                     [ 3.53101000E+00, -1.23661000E-04, -5.02999000E-07,
                       2.43531000E-09, -1.40881000E-12, -1.04698000E+03,
                       2.96747000E+00]),
                NASA([1000.00, 6000.00],
                     [ 2.95258000E+00,  1.39690000E-03, -4.92632000E-07,
                       7.86010000E-11, -4.60755000E-15, -9.23949000E+02,
                       5.87189000E+00])))

species(name='H2',
        atoms='H:2',
        thermo=(NASA([100.00, 1959.07],
                     [ 3.43536403E+00,  2.12711072E-04, -2.78626672E-07,
                       3.40268444E-10, -7.76035161E-14, -1.03135984E+03,
                      -3.90841700E+00]),
                NASA([1959.07, 5000.00],
                     [ 2.78817447E+00,  5.87629714E-04,  1.59015673E-07,
                      -5.52749575E-11,  4.34318673E-15, -5.96149369E+02,
                       1.12681428E-01])))

species(name='H',
        atoms='H:1',
        thermo=(NASA([100.00, 4873.25],
                     [ 2.50000000E+00,  4.17963250E-13, -5.18721884E-16,
                       2.08798154E-19, -2.58167437E-23,  2.54742178E+04,
                      -4.44972896E-01]),
                NASA([4873.25, 5000.00],
                     [ 2.34026353E+00,  1.30351600E-04, -3.98882618E-08,
                       5.42470789E-12, -2.76645570E-16,  2.56308089E+04,
                       5.79575123E-01])))

species(name='O2',
        atoms='O:2',
        thermo=(NASA([100.00, 1074.55],
                     [ 3.53732244E+00, -1.21571657E-03,  5.31620286E-06,
                      -4.89446474E-09,  1.45846275E-12, -1.03858849E+03,
                       4.68368180E+00]),
                NASA([1074.55, 5000.00],
                     [ 3.15382076E+00,  1.67804378E-03, -7.69974279E-07,
                       1.51275472E-10, -1.08782422E-14, -1.04081726E+03,
                       6.16755858E+00])))

species(name='CO',
        atoms='C:1 O:1',
        thermo=(NASA([100.00, 1571.64],
                     [ 3.56837990E+00, -8.52124803E-04,  2.48917585E-06,
                      -1.56330852E-09,  3.13594746E-13, -1.42842549E+04,
                       3.57912211E+00]),
                NASA([1571.64, 5000.00],
                     [ 2.91306744E+00,  1.64657736E-03, -6.88614573E-07,
                       1.21037305E-10, -7.84017611E-15, -1.41808849E+04,
                       6.71045316E+00])))

species(name='CH4',
        atoms='C:1 H:4',
        thermo=(NASA([100.00, 1084.10],
                     [ 4.20542445E+00, -5.35567966E-03,  2.51126834E-05,
                      -2.13767238E-08,  5.97541560E-12, -1.01619437E+04,
                      -9.21312464E-01]),
                NASA([1084.10, 5000.00],
                     [ 9.08212666E-01,  1.14541733E-02, -4.57178757E-06,
                       8.29203121E-10, -5.66324272E-14, -9.71995119E+03,
                       1.39933950E+01])))

species(name='CH3OH',
        atoms='C:1 H:4 O:1',
        thermo=(NASA([100.00, 995.37],
                     [ 3.91001800E+00, -1.31502018E-03,  2.80666796E-05,
                      -2.98992775E-08,  9.91729269E-12, -2.55753742E+04,
                       5.89069287E+00]),
                NASA([995.37, 5000.00],
                     [ 3.01640489E+00,  1.12129547E-02, -4.28040075E-06,
                       7.85991562E-10, -5.52586598E-14, -2.58401954E+04,
                       7.97383369E+00])))

species(name='C2H6',
        atoms='C:2 H:6',
        thermo=(NASA([100.00, 981.60],
                     [ 3.74673556E+00,  4.51462539E-05,  4.07975313E-05,
                      -4.57429555E-08,  1.56849504E-11, -1.14740725E+04,
                       4.74129695E+00]),
                NASA([981.60, 5000.00],
                     [ 3.34693556E+00,  1.61750606E-02, -6.00968827E-06,
                       1.09623613E-09, -7.72315850E-14, -1.20941851E+04,
                       3.10419415E+00])))

species(name='H2O',
        atoms='H:2 O:1',
        thermo=(NASA([100.00, 1130.24],
                     [ 4.05763585E+00, -7.87936017E-04,  2.90877545E-06,
                      -1.47518924E-09,  2.12843188E-13, -3.02815866E+04,
                      -3.11364111E-01]),
                NASA([1130.24, 5000.00],
                     [ 2.84325040E+00,  2.75108555E-03, -7.81031543E-07,
                       1.07243653E-10, -5.79392354E-15, -2.99586127E+04,
                       5.91042021E+00])))

species(name='CH2O',
        atoms='C:1 H:2 O:1',
        thermo=(NASA([100.00, 1041.97],
                     [ 4.13878510E+00, -4.69510761E-03,  2.25728997E-05,
                      -2.09848347E-08,  6.36116698E-12, -1.43493282E+04,
                       3.23828589E+00]),
                NASA([1041.97, 5000.00],
                     [ 2.36096913E+00,  7.66801763E-03, -3.19769010E-06,
                       6.04721481E-10, -4.27515117E-14, -1.42794874E+04,
                       1.04456303E+01])))

species(name='C2H4',
        atoms='C:2 H:4',
        thermo=(NASA([100.00, 946.01],
                     [ 3.98876357E+00, -6.74717078E-03,  5.04399627E-05,
                      -5.70746533E-08,  2.04945978E-11,  5.04704735E+03,
                       3.80492745E+00]),
                NASA([946.01, 5000.00],
                     [ 4.59021047E+00,  8.72724755E-03, -2.66494427E-06,
                       4.81713109E-10, -3.60692501E-14,  4.12702413E+03,
                      -3.32451922E+00])))

species(name='CH3I',
        atoms='C:1 H:3 I:1',
        thermo=(NASA([100.00, 923.12],
                     [ 3.83359733E+00, -3.36337339E-03,  3.99340941E-05,
                      -5.00965127E-08,  1.92915612E-11,  3.34360558E+02,
                       8.30570845E+00]),
                NASA([923.12, 5000.00],
                     [ 6.45995716E+00,  3.27813712E-03, -1.42204165E-07,
                      -4.92654574E-12, -1.88219097E-15, -9.18391383E+02,
                      -8.31393655E+00])))

species(name='CH2I2',
        atoms='C:1 H:2 I:2',
        thermo=(NASA([100.00, 996.03],
                     [ 3.23951851E+00,  1.35941457E-02, -3.84870452E-06,
                      -5.48476263E-09,  3.22392860E-12,  1.14516370E+04,
                       1.49170429E+01]),
                NASA([996.03, 5000.00],
                     [ 7.04594248E+00,  5.34219658E-03, -2.01511188E-06,
                       3.78537710E-10, -2.74396205E-14,  1.03444386E+04,
                      -5.18324085E+00])))

species(name='C3H8',
        atoms='C:3 H:8',
        thermo=(NASA([100.00, 990.00],
                     [ 3.06333033E+00,  1.29218330E-02,  3.47019335E-05,
                      -4.70928365E-08,  1.71376450E-11, -1.43905775E+04,
                       1.07836711E+01]),
                NASA([990.00, 5000.00],
                     [ 5.60452354E+00,  2.19526688E-02, -8.22068505E-06,
                       1.50101131E-09, -1.05632983E-13, -1.58394555E+04,
                      -6.22692599E+00])))

species(name='OCX',
        atoms='C:1 O:1 X:1',
        thermo=(NASA([298.00, 1000.00],
                     [ 2.70112272E+00,  8.76650166E-03, -1.29512418E-05,
                       1.04194594E-08, -3.39700490E-12, -3.49476634E+04,
                      -1.28730512E+01]),
                NASA([1000.00, 2000.00],
                     [ 5.52820880E+00, -1.52631254E-03,  2.79791895E-06,
                      -1.54550129E-09,  2.84523223E-13, -3.56231280E+04,
                      -2.69156979E+01])))

species(name='OX',
        atoms='O:1 X:1',
        thermo=(NASA([298.00, 1000.00],
                     [ 1.79722382E-01,  1.25453156E-02, -2.29924588E-05,
                       1.94187177E-08, -6.22414099E-12, -1.73402246E+04,
                      -2.22409728E+00]),
                NASA([1000.00, 2000.00],
                     [ 2.92050897E+00, -2.70455589E-04,  5.15610634E-07,
                      -2.93911213E-10,  5.54030466E-14, -1.78369003E+04,
                      -1.50940536E+01])))

species(name='HX',
        atoms='H:1 X:1',
        thermo=(NASA([298.00, 1000.00],
                     [-1.96702988E+00,  1.67920714E-02, -2.50314139E-05,
                       1.80485455E-08, -5.11491197E-12, -3.21277026E+03,
                       7.68211257E+00]),
                NASA([1000.00, 2000.00],
                     [ 2.71968546E+00, -1.07696656E-03,  2.00193294E-06,
                      -1.12865983E-09,  2.11269165E-13, -4.24701712E+03,
                      -1.52793490E+01])))

species(name='CH3X',
        atoms='C:1 H:3 X:1',
        thermo=(NASA([298.00, 1000.00],
                     [ -4.44549058E-02, 1.94367665E-02,
 		 -1.91028733E-05, 1.11269371E-08, -2.73736242E-12,
 		 -6.38803761E+03, -1.73375963E-01]),
                NASA([1000.00, 2000.00],
                     [ 8.65703831E+00, -7.90306811E-03,
 		 1.40100339E-05, -7.40015630E-09, 1.31516518E-12,
 		 -8.63598142E+03, -4.43352147E+01])))

species(name='CH2X',
        atoms='C:1 H:2 X:1',
        thermo=(NASA([298.00, 1000.00],
                     [-2.23006757E+00, 2.92222928E-02,
 		 -4.33154923E-05, 3.31428193E-08, -9.96471308E-12,
 		 -2.22255986E+02, 8.30173205E+00]),
                NASA([1000.00, 2000.00],
                     [ 6.83459953E+00, -5.14926338E-03,
 		 9.15491022E-06, -4.84917376E-09, 8.63766549E-13,
 		 -2.25897683E+03, -3.62215373E+01])))

species(name='CHX',
        atoms='C:1 H:1 X:1',
        thermo=(NASA([298.00, 1000.00],
                     [-2.66805027E+00, 2.90693484E-02,
 		 -4.82653552E-05, 3.87589256E-08, -1.19749419E-11,
 		 -2.91815541E+03, 9.72941428E+00]),
                NASA([1000.00, 2000.00],
                     [ 4.90429167E+00, -2.63864076E-03,
 		 4.71728282E-06, -2.51266557E-09, 4.49658548E-13,
 		 -4.46440437E+03, -2.67107535E+01])))

species(name='HOX',
        atoms='H:1 O:1 X:1',
        thermo=(NASA([298.00, 1000.00],
                     [ 1.40720163E+00, 1.58600012E-02,
 		 -2.93120129E-05, 2.51696559E-08, -8.08211137E-12,
 		 -1.90353385E+04, -5.94631402E+00]),
                NASA([1000.00, 2000.00],
                     [ 5.03535292E+00, -1.34542768E-03,
 		 2.26149718E-06, -1.08681677E-09, 1.78128847E-13,
 		 -1.96732086E+04, -2.29029239E+01])))

species(name='H2OX',
        atoms='H:2 O:1 X:1',
        thermo=(NASA([298.00, 1000.00],
                     [ 2.72971388E+00, 8.71051652E-03,
 		 -1.29131826E-05, 1.07295000E-08, -3.39433516E-12,
 		 -3.26235243E+04, -6.04089007E+00]),
                NASA([1000.00, 2000.00],
                     [ 5.85496626E+00, -3.28847895E-03,
 		 5.56990997E-06, -2.73008308E-09, 4.55898396E-13,
 		 -3.33154607E+04, -2.13479503E+01])))

species(name='CH2OX',
        atoms='C:1 H:2 O:1 X:1',
        thermo=(NASA([298.00, 1000.00],
                     [ 4.15211100E+00, -5.48713399E-04,
 		 1.68589310E-05, -1.83357871E-08, 6.29630386E-12,
 		 -2.10118942E+04, -1.14381329E+01]),
                NASA([1000.00, 2000.00],
                     [ 8.40512511E+00, -6.90216908E-03,
 		 1.23521547E-05, -6.62362976E-09, 1.19136446E-12,
 		 -2.24929731E+04, -3.48378873E+01])))

species(name='CH4X',
        atoms='C:1 H:4 X:1',
        thermo=(NASA([298.00, 1000.00],
                     [ 4.85496247E+00, -5.54134984E-03,
 		 3.01198105E-05, -2.99225917E-08, 1.00502506E-11,
 		 -1.17096278E+04, -9.25230403E+00]),
                NASA([1000.00, 2000.00],
                     [ 9.54139205E+00, -1.04025110E-02,
 		 1.83777375E-05, -9.66765019E-09, 1.71211361E-12,
 		 -1.34475604E+04, -3.55599280E+01])))

species(name='CH3OHX',
        atoms='C:1 H:4 O:1 X:1',
        thermo=(NASA([298.00, 1000.00],
                     [ 3.05737703E+00, 1.28624334E-02,
 		 4.84927639E-06, -1.35997111E-08, 5.96900307E-12,
 		 -3.10729567E+04, -1.24359019E+01]),
                NASA([1000.00, 2000.00],
                     [ 1.31134924E+01, -1.14087964E-02,
 		 2.02030110E-05, -1.06647876E-08, 1.89545946E-12,
 		 -3.40303908E+04, -6.52666455E+01])))

species(name='C2H6X',
        atoms='C:2 H:6 X:1',
        thermo=(NASA([298.00, 1000.00],
                     [ 2.21371476E+00, 1.22146805E-02,
 		 1.90686655E-05, -2.86454335E-08, 1.10579011E-11,
 		 -1.47557767E+04, -3.32342037E+00]),
                NASA([1000.00, 2000.00],
                     [ 1.58691392E+01, -1.76783297E-02,
 		 3.14415303E-05, -1.67061689E-08, 2.98335751E-12,
 		 -1.89588917E+04, -7.59062917E+01])))

species(name='C3H8X',
        atoms='C:3 H:8 X:1',
        thermo=(NASA([298.00, 1000.00],
                     [ 2.15856144E+00, 2.48539972E-02,
 		 1.53525973E-05, -3.25302366E-08, 1.35067652E-11,
 		 -1.70355920E+04, -8.74139325E+00]),
                NASA([1000.00, 2000.00],
                     [ 2.32832355E+01, -2.45407014E-02,
 		 4.37313468E-05, -2.33036993E-08, 4.17150293E-12,
 		 -2.33620818E+04, -1.20201845E+02])))

species(name='C2H4X',
        atoms='C:2 H:4 X:1',
        thermo=(NASA([298.00, 1000.00],
                     [ 1.30720584E+00, 1.65960781E-02,
 		 -1.65593894E-06, -8.53643563E-09, 4.49817961E-12,
 		 -4.71848181E+02, 1.01377612E+00]),
                NASA([1000.00, 2000.00],
                     [ 1.21842322E+01, -1.15021314E-02,
 		 2.03950515E-05, -1.07880418E-08, 1.91997845E-12,
 		 -3.57155818E+03, -5.56542603E+01])))
                      
species(name = "HCOOX",
	atoms = " H:1 C:1 O:2 X:1",
	thermo = (
		NASA( [300.0, 1000.0], [2.65452420E+00, 1.53991982E-02,
 		 -1.01838393E-05, 1.75304050E-09, 5.79616216E-13,
 		 -4.59276111E+04, -1.10811323E+01]), 
		NASA( [1000.0, 2000.0], [1.01836317E+01, -5.48156116E-03,
 		 9.93505216E-06, -5.42476717E-09, 9.90184317E-13,
 		 -4.80102978E+04, -4.99790900E+01])))
	
species(name='HCOXOX',
        atoms='C:1 H:1 O:2 X:2',
        thermo=(NASA([298.00, 1000.00],
                     [ 1.61659601E+00,  1.91323831E-02, -1.56426057E-05,
                       5.33726639E-09, -3.02650266E-13, -5.40963560E+04,
                      -8.06287760E+00]),
                NASA([1000.00, 2000.00],
                     [ 1.01220820E+01, -5.52918679E-03,  1.00078607E-05,
                      -5.45403486E-09,  9.94268481E-13, -5.63827709E+04,
                      -5.17074860E+01])))
                      
species(name='CH3OX',
        atoms='C:1 H:3 O:1 X:1',
        thermo=(NASA([298.00, 1000.00],
                     [ 1.63812716E+00, 1.12365450E-02,
 		 3.66483569E-06, -1.11206508E-08, 4.85717196E-12,
 		 -2.00142278E+04, -2.01455194E+00]),
                NASA([1000.00, 2000.00],
                     [ 1.02529540E+01, -9.48030120E-03,
 		 1.69012290E-05, -9.01198585E-09, 1.61413303E-12,
 		 -2.25613211E+04, -4.73171467E+01])))
                      
species(name='HCOOHX',
        atoms='C:1 H:2 O:2 X:1',
        thermo=(NASA([298.00, 1000.00],
                     [ 2.35698005E+00, 1.65817950E-02,
 		 -8.93246966E-06, -5.96590962E-10, 1.65711889E-12,
 		 -5.05894219E+04, -5.39293976E-01]),
                NASA([1000.00, 2000.00],
                     [ 1.10477982E+01, -7.24275336E-03,
 		 1.29091117E-05, -6.88021947E-09, 1.23289623E-12,
 		 -5.29927413E+04, -4.54689830E+01])))
