units(length='cm', time='s', quantity='mol', act_energy='kcal/mol')

ideal_gas(name='gas',
          elements="H D T C Ci O Oi N Ne Ar He Si S F Cl Br I X",
          species="""Ar      He      Ne      N2      H2            O2
                     CO      CH4     CH3OH   C2H6    H2O     CH2O    C2H4
                     CH3I    CH2I2   C3H8    HCOOH   OCX     OX      HX 
                     CH3X    CH2X    CHX     HOX     H2OX    CH2OX   CH4X 
                     CH3OHX  C2H6X   C3H8X   C2H4X  HCOOX   HCOXOX  CH3OX   	
                     HCOOHX CHCH3X CCH3X""",
          initial_state=state(temperature=300.0, pressure=OneAtm))

#-------------------------------------------------------------------------------
# Element data
#-------------------------------------------------------------------------------

element(symbol='Ci', atomic_mass=13.003)
element(symbol='D', atomic_mass=2.014)
element(symbol='Oi', atomic_mass=17.999)
element(symbol='T', atomic_mass=3.016)
element(symbol='X', atomic_mass=195.083)
#-------------------------------------------------------------------------------
# Species data
#-------------------------------------------------------------------------------

species(name='Ar',
        atoms='Ar:1',
        thermo=(NASA([200.00, 1000.00],
                     [ 2.50000000E+00,  0.00000000E+00,  0.00000000E+00,
                       0.00000000E+00,  0.00000000E+00, -7.45375000E+02,
                       4.37967000E+00]),
                NASA([1000.00, 6000.00],
                     [ 2.50000000E+00,  0.00000000E+00,  0.00000000E+00,
                       0.00000000E+00,  0.00000000E+00, -7.45375000E+02,
                       4.37967000E+00])))

species(name='He',
        atoms='He:1',
        thermo=(NASA([200.00, 1000.00],
                     [ 2.50000000E+00,  0.00000000E+00,  0.00000000E+00,
                       0.00000000E+00,  0.00000000E+00, -7.45375000E+02,
                       9.28724000E-01]),
                NASA([1000.00, 6000.00],
                     [ 2.50000000E+00,  0.00000000E+00,  0.00000000E+00,
                       0.00000000E+00,  0.00000000E+00, -7.45375000E+02,
                       9.28724000E-01])))

species(name='Ne',
        atoms='Ne:1',
        thermo=(NASA([200.00, 1000.00],
                     [ 2.50000000E+00,  0.00000000E+00,  0.00000000E+00,
                       0.00000000E+00,  0.00000000E+00, -7.45375000E+02,
                       3.35532000E+00]),
                NASA([1000.00, 6000.00],
                     [ 2.50000000E+00,  0.00000000E+00,  0.00000000E+00,
                       0.00000000E+00,  0.00000000E+00, -7.45375000E+02,
                       3.35532000E+00])))

species(name='N2',
        atoms='N:2',
        thermo=(NASA([200.00, 1000.00],
                     [ 3.53101000E+00, -1.23661000E-04, -5.02999000E-07,
                       2.43531000E-09, -1.40881000E-12, -1.04698000E+03,
                       2.96747000E+00]),
                NASA([1000.00, 6000.00],
                     [ 2.95258000E+00,  1.39690000E-03, -4.92632000E-07,
                       7.86010000E-11, -4.60755000E-15, -9.23949000E+02,
                       5.87189000E+00])))

species(name=u'H2',
        atoms='H:2',
        thermo=(NASA([200.00, 1000.00],
                     [ 2.37694204E+00,  7.73916922E-03, -1.88735073E-05,
                       1.95517114E-08, -7.17095663E-12, -9.21173081E+02,
                       5.47184736E-01]),
                NASA([1000.00, 6000.00],
                     [ 2.90207649E+00,  8.68992581E-04, -1.65864430E-07,
                       1.90851899E-11, -9.31121789E-16, -7.97948726E+02,
                      -8.45591320E-01])),
        transport=gas_transport(geom='linear',
                                diam=2.92,
                                well_depth=38.0,
                                polar=0.79,
                                rot_relax=280.0),
        note=u'ATcT3E')


species(name=u'O2',
        atoms='O:2',
        thermo=(NASA([200.00, 1000.00],
                     [ 3.78498258E+00, -3.02002233E-03,  9.92029171E-06,
                      -9.77840434E-09,  3.28877702E-12, -1.06413589E+03,
                       3.64780709E+00]),
                NASA([1000.00, 6000.00],
                     [ 3.65980488E+00,  6.59877372E-04, -1.44158172E-07,
                       2.14656037E-11, -1.36503784E-15, -1.21603048E+03,
                       3.42074148E+00])),
        transport=gas_transport(geom='linear',
                                diam=3.458,
                                well_depth=107.4,
                                polar=1.6,
                                rot_relax=3.8),
        note=u'ATcT3E')

species(name=u'CO',
        atoms='C:1 O:1',
        thermo=(NASA([200.00, 1000.00],
                     [ 3.59508377E+00, -7.21196937E-04,  1.28238234E-06,
                       6.52429293E-10, -8.21714806E-13, -1.43448968E+04,
                       3.44355598E+00]),
                NASA([1000.00, 6000.00],
                     [ 3.03397274E+00,  1.37328118E-03, -4.96445087E-07,
                       8.10281447E-11, -4.85331749E-15, -1.42586044E+04,
                       6.10076092E+00])),
        transport=gas_transport(geom='linear',
                                diam=3.65,
                                well_depth=98.1,
                                polar=1.95,
                                rot_relax=1.8),
        note=u'ATcT3E')

species(name=u'CH4',
        atoms='H:4 C:1',
        thermo=(NASA([200.00, 1000.00],
                     [ 5.00701913E+00, -1.26484158E-02,  4.66821073E-05,
                      -4.59210565E-08,  1.57633618E-11, -1.02223522E+04,
                      -4.04227377E+00]),
                NASA([1000.00, 6000.00],
                     [ 1.68377091E+00,  1.00130251E-02, -3.31267639E-06,
                       5.30233546E-10, -3.13372430E-14, -1.00187792E+04,
                       9.71477402E+00])),
        transport=gas_transport(geom='nonlinear',
                                diam=3.746,
                                well_depth=141.4,
                                polar=2.6,
                                rot_relax=13.0),
        note=u'ATcT3E')

species(name=u'CH3OH',
        atoms='H:4 C:1 O:1',
        thermo=(NASA([200.00, 1000.00],
                     [ 5.52796377E+00, -1.38922182E-02,  6.21715706E-05,
                      -6.82045334E-08,  2.52018995E-11, -2.55968085E+04,
                      -7.15601292E-01]),
                NASA([1000.00, 6000.00],
                     [ 3.71775547E+00,  1.00962072E-02, -3.53785207E-06,
                       5.61843105E-10, -3.32714390E-14, -2.60222319E+04,
                       4.04182781E+00])),
        transport=gas_transport(geom='nonlinear',
                                diam=3.626,
                                well_depth=481.8,
                                rot_relax=1.0),
        note=u'ATcT3E')
        
species(name=u'C2H6',
        atoms='H:6 C:2',
        thermo=(NASA([200.00, 1000.00],
                     [ 4.14633324E+00, -4.42384448E-03,  5.70675847E-05,
                      -6.76419283E-08,  2.57224127E-11, -1.15145444E+04,
                       3.26635850E+00]),
                NASA([1000.00, 6000.00],
                     [ 3.97869303E+00,  1.54586738E-02, -5.37526584E-06,
                       8.59586664E-10, -5.11297726E-14, -1.24445501E+04,
                      -6.27169623E-01])),
        transport=gas_transport(geom='nonlinear',
                                diam=4.302,
                                well_depth=252.3,
                                rot_relax=1.5),
        note=u'ATcT3E')

species(name=u'H2O',
        atoms='H:2 O:1',
        thermo=(NASA([200.00, 1000.00],
                     [ 4.20147551E+00, -2.05583546E-03,  6.56547207E-06,
                      -5.52906960E-09,  1.78282605E-12, -3.02950066E+04,
                      -8.60610906E-01]),
                NASA([1000.00, 6000.00],
                     [ 2.73117512E+00,  2.95136995E-03, -8.35359785E-07,
                       1.26088593E-10, -8.40531676E-15, -2.99169082E+04,
                       6.55183000E+00])),
        transport=gas_transport(geom='nonlinear',
                                diam=2.605,
                                well_depth=572.4,
                                dipole=1.844,
                                rot_relax=4.0),
        note=u'ATcT3E')

species(name=u'CH2O',
        atoms='H:2 C:1 O:1',
        thermo=(NASA([200.00, 1000.00],
                     [ 4.77187231E+00, -9.76266155E-03,  3.70121918E-05,
                      -3.76921617E-08,  1.31326646E-11, -1.43798106E+04,
                       6.96585679E-01]),
                NASA([1000.00, 6000.00],
                     [ 2.91332516E+00,  6.70039926E-03, -2.55520684E-06,
                       4.27795142E-10, -2.44072521E-14, -1.44622358E+04,
                       7.43822875E+00])),
        transport=gas_transport(geom='nonlinear',
                                diam=3.59,
                                well_depth=498.0,
                                rot_relax=2.0),
        note=u'ATcT3E')

species(name=u'C2H4',
        atoms='H:4 C:2',
        thermo=(NASA([200.00, 1000.00],
                     [ 3.65150713E+00, -5.35067462E-03,  5.16486118E-05,
                      -6.36868930E-08,  2.50743457E-11,  5.11450775E+03,
                       5.38560851E+00]),
                NASA([1000.00, 6000.00],
                     [ 4.14446010E+00,  1.02648277E-02, -3.61246996E-06,
                       5.74008727E-10, -3.39295896E-14,  4.19059383E+03,
                      -1.14778318E+00])),
        transport=gas_transport(geom='nonlinear',
                                diam=3.971,
                                well_depth=280.8,
                                rot_relax=1.5),
        note=u'ATcT3E')

species(name='CH3I',
        atoms='C:1 H:3 I:1',
        thermo=(NASA([200.00, 1000.00],
                     [ 3.33254903E+00,  2.42910740E-03,  2.10706719E-05,
                      -2.92666346E-08,  1.19582445E-11,  5.46893270E+02,
                       1.00889910E+01]),
                NASA([1000.00, 3000.00],
                     [ 2.88774794E+00,  1.04989705E-02, -4.86628090E-06,
                       1.10255116E-09, -9.90503653E-14,  4.21576319E+02,
                       1.09514433E+01])))

species(name='CH2I2',
        atoms='C:1 H:2 I:2',
        thermo=(NASA([200.00, 1000.00],
                     [ 3.00863301E+00,  1.54789805E-02, -8.00737669E-06,
                      -3.26533266E-09,  3.38806587E-12,  1.16789718E+04,
                       1.58766134E+01]),
                NASA([1000.00, 3000.00],
                     [ 5.76701145E+00,  7.78078843E-03, -3.74170868E-06,
                       8.78428726E-10, -8.15499371E-14,  1.10057829E+04,
                       1.87391837E+00])))

species(name='C3H8',
        atoms='C:3 H:8',
        thermo=(NASA([200.00, 1000.00],
                     [ 4.87984532E+00, -2.44661956E-03,  7.56912626E-05,
                      -9.40428483E-08,  3.65051540E-11, -1.44554582E+04,
                       3.07990563E+00]),
                NASA([1000.00, 3000.00],
                     [ 1.31257279E+00,  3.10123172E-02, -1.48994996E-05,
                       3.48277530E-09, -3.21371590E-13, -1.44368340E+04,
                       1.62562859E+01])))
                      
species(name='HCOOH',
        atoms='C:1 H:2 O:2',
        thermo=(NASA([200.00, 1000.00],
                     [ 3.67373628E+00, -2.14081470E-03,  3.97712659E-05,
                      -4.99522677E-08,  1.92421881E-11, -4.67735599E+04,
                       8.21668562E+00]),
                NASA([1000.00, 3000.00],
                     [ 2.90584595E+00,  1.37807519E-02, -8.02282813E-06,
                       2.14975654E-09, -2.19418352E-13, -4.71682729E+04,
                       8.99462478E+00])))                

species(name='OCX',
        atoms='C:1 O:1 X:1',
        thermo=(NASA([298.00, 1000.00],
                     [ 2.70112272E+00,  8.76650166E-03, -1.29512418E-05,
                       1.04194594E-08, -3.39700490E-12, -3.49476634E+04,
                      -1.28730512E+01]),
                NASA([1000.00, 2000.00],
                     [ 5.52820880E+00, -1.52631254E-03,  2.79791895E-06,
                      -1.54550129E-09,  2.84523223E-13, -3.56231280E+04,
                      -2.69156979E+01])))

species(name='OX',
        atoms='O:1 X:1',
        thermo=(NASA([298.00, 1000.00],
                     [ 1.79722382E-01,  1.25453156E-02, -2.29924588E-05,
                       1.94187177E-08, -6.22414099E-12, -1.73402246E+04,
                      -2.22409728E+00]),
                NASA([1000.00, 2000.00],
                     [ 2.92050897E+00, -2.70455589E-04,  5.15610634E-07,
                      -2.93911213E-10,  5.54030466E-14, -1.78369003E+04,
                      -1.50940536E+01])))

species(name='HX',
        atoms='H:1 X:1',
        thermo=(NASA([298.00, 1000.00],
                     [-1.96702988E+00,  1.67920714E-02, -2.50314139E-05,
                       1.80485455E-08, -5.11491197E-12, -3.21277026E+03,
                       7.68211257E+00]),
                NASA([1000.00, 2000.00],
                     [ 2.71968546E+00, -1.07696656E-03,  2.00193294E-06,
                      -1.12865983E-09,  2.11269165E-13, -4.24701712E+03,
                      -1.52793490E+01])))

species(name='CH3X',
        atoms='C:1 H:3 X:1',
        thermo=(NASA([298.00, 1000.00],
                     [ -4.44549058E-02, 1.94367665E-02,
 		 -1.91028733E-05, 1.11269371E-08, -2.73736242E-12,
 		 -6.38803761E+03, -1.73375963E-01]),
                NASA([1000.00, 2000.00],
                     [ 8.65703831E+00, -7.90306811E-03,
 		 1.40100339E-05, -7.40015630E-09, 1.31516518E-12,
 		 -8.63598142E+03, -4.43352147E+01])))

species(name='CH2X',
        atoms='C:1 H:2 X:1',
        thermo=(NASA([298.00, 1000.00],
                     [-2.23006757E+00, 2.92222928E-02,
 		 -4.33154923E-05, 3.31428193E-08, -9.96471308E-12,
 		 -2.22255986E+02, 8.30173205E+00]),
                NASA([1000.00, 2000.00],
                     [ 6.83459953E+00, -5.14926338E-03,
 		 9.15491022E-06, -4.84917376E-09, 8.63766549E-13,
 		 -2.25897683E+03, -3.62215373E+01])))

species(name='CHX',
        atoms='C:1 H:1 X:1',
        thermo=(NASA([298.00, 1000.00],
                     [-2.66805027E+00, 2.90693484E-02,
 		 -4.82653552E-05, 3.87589256E-08, -1.19749419E-11,
 		 -2.91815541E+03, 9.72941428E+00]),
                NASA([1000.00, 2000.00],
                     [ 4.90429167E+00, -2.63864076E-03,
 		 4.71728282E-06, -2.51266557E-09, 4.49658548E-13,
 		 -4.46440437E+03, -2.67107535E+01])))

species(name='HOX',
        atoms='H:1 O:1 X:1',
        thermo=(NASA([298.00, 1000.00],
                     [ 1.40720163E+00, 1.58600012E-02,
 		 -2.93120129E-05, 2.51696559E-08, -8.08211137E-12,
 		 -1.90353385E+04, -5.94631402E+00]),
                NASA([1000.00, 2000.00],
                     [ 5.03535292E+00, -1.34542768E-03,
 		 2.26149718E-06, -1.08681677E-09, 1.78128847E-13,
 		 -1.96732086E+04, -2.29029239E+01])))

species(name='H2OX',
        atoms='H:2 O:1 X:1',
        thermo=(NASA([298.00, 1000.00],
                     [ 2.72971388E+00, 8.71051652E-03,
 		 -1.29131826E-05, 1.07295000E-08, -3.39433516E-12,
 		 -3.26235243E+04, -6.04089007E+00]),
                NASA([1000.00, 2000.00],
                     [ 5.85496626E+00, -3.28847895E-03,
 		 5.56990997E-06, -2.73008308E-09, 4.55898396E-13,
 		 -3.33154607E+04, -2.13479503E+01])))

species(name='CH2OX',
        atoms='C:1 H:2 O:1 X:1',
        thermo=(NASA([298.00, 1000.00],
                     [ 4.15211100E+00, -5.48713399E-04,
 		 1.68589310E-05, -1.83357871E-08, 6.29630386E-12,
 		 -2.10118942E+04, -1.14381329E+01]),
                NASA([1000.00, 2000.00],
                     [ 8.40512511E+00, -6.90216908E-03,
 		 1.23521547E-05, -6.62362976E-09, 1.19136446E-12,
 		 -2.24929731E+04, -3.48378873E+01])))

species(name='CH4X',
        atoms='C:1 H:4 X:1',
        thermo=(NASA([298.00, 1000.00],
                     [ 4.85496247E+00, -5.54134984E-03,
 		 3.01198105E-05, -2.99225917E-08, 1.00502506E-11,
 		 -1.17096278E+04, -9.25230403E+00]),
                NASA([1000.00, 2000.00],
                     [ 9.54139205E+00, -1.04025110E-02,
 		 1.83777375E-05, -9.66765019E-09, 1.71211361E-12,
 		 -1.34475604E+04, -3.55599280E+01])))

species(name='CH3OHX',
        atoms='C:1 H:4 O:1 X:1',
        thermo=(NASA([298.00, 1000.00],
                     [ 3.05737703E+00, 1.28624334E-02,
 		 4.84927639E-06, -1.35997111E-08, 5.96900307E-12,
 		 -3.10729567E+04, -1.24359019E+01]),
                NASA([1000.00, 2000.00],
                     [ 1.31134924E+01, -1.14087964E-02,
 		 2.02030110E-05, -1.06647876E-08, 1.89545946E-12,
 		 -3.40303908E+04, -6.52666455E+01])))

species(name='C2H6X',
        atoms='C:2 H:6 X:1',
        thermo=(NASA([298.00, 1000.00],
                     [ 2.21371476E+00, 1.22146805E-02,
 		 1.90686655E-05, -2.86454335E-08, 1.10579011E-11,
 		 -1.47557767E+04, -3.32342037E+00]),
                NASA([1000.00, 2000.00],
                     [ 1.58691392E+01, -1.76783297E-02,
 		 3.14415303E-05, -1.67061689E-08, 2.98335751E-12,
 		 -1.89588917E+04, -7.59062917E+01])))

species(name='C3H8X',
        atoms='C:3 H:8 X:1',
        thermo=(NASA([298.00, 1000.00],
                     [ 2.15856144E+00, 2.48539972E-02,
 		 1.53525973E-05, -3.25302366E-08, 1.35067652E-11,
 		 -1.70355920E+04, -8.74139325E+00]),
                NASA([1000.00, 2000.00],
                     [ 2.32832355E+01, -2.45407014E-02,
 		 4.37313468E-05, -2.33036993E-08, 4.17150293E-12,
 		 -2.33620818E+04, -1.20201845E+02])))

species(name='C2H4X',
        atoms='C:2 H:4 X:1',
        thermo=(NASA([298.00, 1000.00],
                     [ 1.30720584E+00, 1.65960781E-02,
 		 -1.65593894E-06, -8.53643563E-09, 4.49817961E-12,
 		 -4.71848181E+02, 1.01377612E+00]),
                NASA([1000.00, 2000.00],
                     [ 1.21842322E+01, -1.15021314E-02,
 		 2.03950515E-05, -1.07880418E-08, 1.91997845E-12,
 		 -3.57155818E+03, -5.56542603E+01])))
                      
species(name = "HCOOX",
	atoms = " H:1 C:1 O:2 X:1",
	thermo = (
		NASA( [300.0, 1000.0], [2.65452420E+00, 1.53991982E-02,
 		 -1.01838393E-05, 1.75304050E-09, 5.79616216E-13,
 		 -4.59276111E+04, -1.10811323E+01]), 
		NASA( [1000.0, 2000.0], [1.01836317E+01, -5.48156116E-03,
 		 9.93505216E-06, -5.42476717E-09, 9.90184317E-13,
 		 -4.80102978E+04, -4.99790900E+01])))
	
species(name='HCOXOX',
        atoms='C:1 H:1 O:2 X:2',
        thermo=(NASA([298.00, 1000.00],
                     [ 1.61659601E+00,  1.91323831E-02, -1.56426057E-05,
                       5.33726639E-09, -3.02650266E-13, -5.40963560E+04,
                      -8.06287760E+00]),
                NASA([1000.00, 2000.00],
                     [ 1.01220820E+01, -5.52918679E-03,  1.00078607E-05,
                      -5.45403486E-09,  9.94268481E-13, -5.63827709E+04,
                      -5.17074860E+01])))
                      
species(name='CH3OX',
        atoms='C:1 H:3 O:1 X:1',
        thermo=(NASA([298.00, 1000.00],
                     [ 1.63812716E+00, 1.12365450E-02,
 		 3.66483569E-06, -1.11206508E-08, 4.85717196E-12,
 		 -2.00142278E+04, -2.01455194E+00]),
                NASA([1000.00, 2000.00],
                     [ 1.02529540E+01, -9.48030120E-03,
 		 1.69012290E-05, -9.01198585E-09, 1.61413303E-12,
 		 -2.25613211E+04, -4.73171467E+01])))
                      
species(name='HCOOHX',
        atoms='C:1 H:2 O:2 X:1',
        thermo=(NASA([298.00, 1000.00],
                     [ 2.35698005E+00, 1.65817950E-02,
 		 -8.93246966E-06, -5.96590962E-10, 1.65711889E-12,
 		 -5.05894219E+04, -5.39293976E-01]),
                NASA([1000.00, 2000.00],
                     [ 1.10477982E+01, -7.24275336E-03,
 		 1.29091117E-05, -6.88021947E-09, 1.23289623E-12,
 		 -5.29927413E+04, -4.54689830E+01])))
 		 
species(name='CHCH3X',
        atoms='C:2 H:4 X:1',
        thermo=(NASA([298.00, 1000.00],
                     [-2.39195145E-01,  2.71965302E-02, -1.96479590E-05,
                       6.17925647E-09, -1.84661314E-13, -5.60696357E+03,
                       2.67225219E-01]),
                NASA([1000.00, 2000.00],
                     [ 1.32714698E+01, -1.19649775E-02,  2.13410724E-05,
                      -1.13827464E-08,  2.03915294E-12, -9.25414727E+03,
                      -6.90961026E+01])))

species(name='CCH3X',
        atoms='C:2 H:3 X:1',
        thermo=(NASA([298.00, 1000.00],
                     [ 1.57603104E-01,  2.34293413E-02, -1.86683661E-05,
                       7.29234370E-09, -8.79008671E-13, -1.12523534E+04,
                      -1.73582278E+00]),
                NASA([1000.00, 2000.00],
                     [ 1.13050336E+01, -9.40622931E-03,  1.67935678E-05,
                      -8.96901500E-09,  1.60855621E-12, -1.42348165E+04,
                      -5.88363790E+01])))
