units(length='cm', time='s', quantity='mol', act_energy='kcal/mol')

ideal_gas(name='gas',
          elements="H D T C Ci O Oi N Ne Ar He Si S F Cl Br I X",
          species="""Ar      He      Ne      N2      H2      H       O2
                     CO      CH4     CH3OH   C2H6    H2O     CH2O    C2H4
                     CH3I    CH2I2   C3H8    HCOOH   OCX     OX      HX
                     CH3X    CH2X    CHX     HOX     H2OX    CH2OX   CH4X
                     CH3OHX  C2H6X   C3H8X   C2H4X""",
          initial_state=state(temperature=300.0, pressure=OneAtm))

#-------------------------------------------------------------------------------
# Element data
#-------------------------------------------------------------------------------

element(symbol='Ci', atomic_mass=13.003)
element(symbol='D', atomic_mass=2.014)
element(symbol='Oi', atomic_mass=17.999)
element(symbol='T', atomic_mass=3.016)
element(symbol='X', atomic_mass=195.083)
#-------------------------------------------------------------------------------
# Species data
#-------------------------------------------------------------------------------

species(name='Ar',
        atoms='Ar:1',
        thermo=(NASA([200.00, 1000.00],
                     [ 2.50000000E+00,  0.00000000E+00,  0.00000000E+00,
                       0.00000000E+00,  0.00000000E+00, -7.45375000E+02,
                       4.37967000E+00]),
                NASA([1000.00, 6000.00],
                     [ 2.50000000E+00,  0.00000000E+00,  0.00000000E+00,
                       0.00000000E+00,  0.00000000E+00, -7.45375000E+02,
                       4.37967000E+00])))

species(name='He',
        atoms='He:1',
        thermo=(NASA([200.00, 1000.00],
                     [ 2.50000000E+00,  0.00000000E+00,  0.00000000E+00,
                       0.00000000E+00,  0.00000000E+00, -7.45375000E+02,
                       9.28724000E-01]),
                NASA([1000.00, 6000.00],
                     [ 2.50000000E+00,  0.00000000E+00,  0.00000000E+00,
                       0.00000000E+00,  0.00000000E+00, -7.45375000E+02,
                       9.28724000E-01])))

species(name='Ne',
        atoms='Ne:1',
        thermo=(NASA([200.00, 1000.00],
                     [ 2.50000000E+00,  0.00000000E+00,  0.00000000E+00,
                       0.00000000E+00,  0.00000000E+00, -7.45375000E+02,
                       3.35532000E+00]),
                NASA([1000.00, 6000.00],
                     [ 2.50000000E+00,  0.00000000E+00,  0.00000000E+00,
                       0.00000000E+00,  0.00000000E+00, -7.45375000E+02,
                       3.35532000E+00])))

species(name='N2',
        atoms='N:2',
        thermo=(NASA([200.00, 1000.00],
                     [ 3.53101000E+00, -1.23661000E-04, -5.02999000E-07,
                       2.43531000E-09, -1.40881000E-12, -1.04698000E+03,
                       2.96747000E+00]),
                NASA([1000.00, 6000.00],
                     [ 2.95258000E+00,  1.39690000E-03, -4.92632000E-07,
                       7.86010000E-11, -4.60755000E-15, -9.23949000E+02,
                       5.87189000E+00])))

species(name='H2',
        atoms='H:2',
        thermo=(NASA([100.00, 1959.07],
                     [ 3.43536403E+00,  2.12711072E-04, -2.78626672E-07,
                       3.40268444E-10, -7.76035161E-14, -1.03135984E+03,
                      -3.90841700E+00]),
                NASA([1959.07, 5000.00],
                     [ 2.78817447E+00,  5.87629714E-04,  1.59015673E-07,
                      -5.52749575E-11,  4.34318673E-15, -5.96149369E+02,
                       1.12681428E-01])))

species(name='H',
        atoms='H:1',
        thermo=(NASA([100.00, 4873.25],
                     [ 2.50000000E+00,  4.17963250E-13, -5.18721884E-16,
                       2.08798154E-19, -2.58167437E-23,  2.54742178E+04,
                      -4.44972896E-01]),
                NASA([4873.25, 5000.00],
                     [ 2.34026353E+00,  1.30351600E-04, -3.98882618E-08,
                       5.42470789E-12, -2.76645570E-16,  2.56308089E+04,
                       5.79575123E-01])))

species(name='O2',
        atoms='O:2',
        thermo=(NASA([100.00, 1074.55],
                     [ 3.53732244E+00, -1.21571657E-03,  5.31620286E-06,
                      -4.89446474E-09,  1.45846275E-12, -1.03858849E+03,
                       4.68368180E+00]),
                NASA([1074.55, 5000.00],
                     [ 3.15382076E+00,  1.67804378E-03, -7.69974279E-07,
                       1.51275472E-10, -1.08782422E-14, -1.04081726E+03,
                       6.16755858E+00])))

species(name='CO',
        atoms='C:1 O:1',
        thermo=(NASA([100.00, 1571.64],
                     [ 3.56837990E+00, -8.52124803E-04,  2.48917585E-06,
                      -1.56330852E-09,  3.13594746E-13, -1.42842549E+04,
                       3.57912211E+00]),
                NASA([1571.64, 5000.00],
                     [ 2.91306744E+00,  1.64657736E-03, -6.88614573E-07,
                       1.21037305E-10, -7.84017611E-15, -1.41808849E+04,
                       6.71045316E+00])))

species(name='CH4',
        atoms='C:1 H:4',
        thermo=(NASA([100.00, 1084.10],
                     [ 4.20542445E+00, -5.35567966E-03,  2.51126834E-05,
                      -2.13767238E-08,  5.97541560E-12, -1.01619437E+04,
                      -9.21312464E-01]),
                NASA([1084.10, 5000.00],
                     [ 9.08212666E-01,  1.14541733E-02, -4.57178757E-06,
                       8.29203121E-10, -5.66324272E-14, -9.71995119E+03,
                       1.39933950E+01])))

species(name='CH3OH',
        atoms='C:1 H:4 O:1',
        thermo=(NASA([100.00, 995.37],
                     [ 3.91001800E+00, -1.31502018E-03,  2.80666796E-05,
                      -2.98992775E-08,  9.91729269E-12, -2.55753742E+04,
                       5.89069287E+00]),
                NASA([995.37, 5000.00],
                     [ 3.01640489E+00,  1.12129547E-02, -4.28040075E-06,
                       7.85991562E-10, -5.52586598E-14, -2.58401954E+04,
                       7.97383369E+00])))

species(name='C2H6',
        atoms='C:2 H:6',
        thermo=(NASA([100.00, 981.60],
                     [ 3.74673556E+00,  4.51462539E-05,  4.07975313E-05,
                      -4.57429555E-08,  1.56849504E-11, -1.14740725E+04,
                       4.74129695E+00]),
                NASA([981.60, 5000.00],
                     [ 3.34693556E+00,  1.61750606E-02, -6.00968827E-06,
                       1.09623613E-09, -7.72315850E-14, -1.20941851E+04,
                       3.10419415E+00])))

species(name='H2O',
        atoms='H:2 O:1',
        thermo=(NASA([100.00, 1130.24],
                     [ 4.05763585E+00, -7.87936017E-04,  2.90877545E-06,
                      -1.47518924E-09,  2.12843188E-13, -3.02815866E+04,
                      -3.11364111E-01]),
                NASA([1130.24, 5000.00],
                     [ 2.84325040E+00,  2.75108555E-03, -7.81031543E-07,
                       1.07243653E-10, -5.79392354E-15, -2.99586127E+04,
                       5.91042021E+00])))

species(name='CH2O',
        atoms='C:1 H:2 O:1',
        thermo=(NASA([100.00, 1041.97],
                     [ 4.13878510E+00, -4.69510761E-03,  2.25728997E-05,
                      -2.09848347E-08,  6.36116698E-12, -1.43493282E+04,
                       3.23828589E+00]),
                NASA([1041.97, 5000.00],
                     [ 2.36096913E+00,  7.66801763E-03, -3.19769010E-06,
                       6.04721481E-10, -4.27515117E-14, -1.42794874E+04,
                       1.04456303E+01])))

species(name='C2H4',
        atoms='C:2 H:4',
        thermo=(NASA([100.00, 946.01],
                     [ 3.98876357E+00, -6.74717078E-03,  5.04399627E-05,
                      -5.70746533E-08,  2.04945978E-11,  5.04704735E+03,
                       3.80492745E+00]),
                NASA([946.01, 5000.00],
                     [ 4.59021047E+00,  8.72724755E-03, -2.66494427E-06,
                       4.81713109E-10, -3.60692501E-14,  4.12702413E+03,
                      -3.32451922E+00])))

species(name='CH3I',
        atoms='C:1 H:3 I:1',
        thermo=(NASA([100.00, 923.12],
                     [ 3.83359733E+00, -3.36337339E-03,  3.99340941E-05,
                      -5.00965127E-08,  1.92915612E-11,  3.34360558E+02,
                       8.30570845E+00]),
                NASA([923.12, 5000.00],
                     [ 6.45995716E+00,  3.27813712E-03, -1.42204165E-07,
                      -4.92654574E-12, -1.88219097E-15, -9.18391383E+02,
                      -8.31393655E+00])))

species(name='CH2I2',
        atoms='C:1 H:2 I:2',
        thermo=(NASA([200.00, 1000.00],
                     [ 3.00863301E+00,  1.54789805E-02, -8.00737669E-06,
                      -3.26533266E-09,  3.38806587E-12,  1.16789718E+04,
                       1.58766134E+01]),
                NASA([1000.00, 3000.00],
                     [ 5.76701145E+00,  7.78078843E-03, -3.74170868E-06,
                       8.78428726E-10, -8.15499371E-14,  1.10057829E+04,
                       1.87391837E+00])))

species(name='C3H8',
        atoms='C:3 H:8',
        thermo=(NASA([100.00, 990.00],
                     [ 3.06333033E+00,  1.29218330E-02,  3.47019335E-05,
                      -4.70928365E-08,  1.71376450E-11, -1.43905775E+04,
                       1.07836711E+01]),
                NASA([990.00, 5000.00],
                     [ 5.60452354E+00,  2.19526688E-02, -8.22068505E-06,
                       1.50101131E-09, -1.05632983E-13, -1.58394555E+04,
                      -6.22692599E+00])))

species(name='HCOOH',
        atoms='C:1 H:2 O:2',
        thermo=(NASA([100.00, 997.62],
                     [ 3.76624084E+00, -8.67781561E-04,  3.32891472E-05,
                      -3.95827909E-08,  1.39946434E-11, -4.68302043E+04,
                       7.56885726E+00]),
                NASA([997.62, 5000.00],
                     [ 5.52460899E+00,  7.79129732E-03, -3.35088059E-06,
                       6.86824610E-10, -5.23915682E-14, -4.79627662E+04,
                      -4.82803100E+00])))

species(name='OCX',
        atoms='C:1 O:1 X:1',
        thermo=(NASA([298.00, 1000.00],
                     [ 2.70112272E+00,  8.76650166E-03, -1.29512418E-05,
                       1.04194594E-08, -3.39700490E-12, -3.49476634E+04,
                      -1.28730512E+01]),
                NASA([1000.00, 2000.00],
                     [ 5.52820880E+00, -1.52631254E-03,  2.79791895E-06,
                      -1.54550129E-09,  2.84523223E-13, -3.56231280E+04,
                      -2.69156979E+01])))

species(name='OX',
        atoms='O:1 X:1',
        thermo=(NASA([298.00, 1000.00],
                     [ 1.79722382E-01,  1.25453156E-02, -2.29924588E-05,
                       1.94187177E-08, -6.22414099E-12, -1.73402246E+04,
                      -2.22409728E+00]),
                NASA([1000.00, 2000.00],
                     [ 2.92050897E+00, -2.70455589E-04,  5.15610634E-07,
                      -2.93911213E-10,  5.54030466E-14, -1.78369003E+04,
                      -1.50940536E+01])))

species(name='HX',
        atoms='H:1 X:1',
        thermo=(NASA([298.00, 1000.00],
                     [-1.96702988E+00,  1.67920714E-02, -2.50314139E-05,
                       1.80485455E-08, -5.11491197E-12, -3.21277026E+03,
                       7.68211257E+00]),
                NASA([1000.00, 2000.00],
                     [ 2.71968546E+00, -1.07696656E-03,  2.00193294E-06,
                      -1.12865983E-09,  2.11269165E-13, -4.24701712E+03,
                      -1.52793490E+01])))

species(name='CH3X',
        atoms='C:1 H:3 X:1',
        thermo=(NASA([298.00, 1000.00],
                     [ 5.80099877E-01,  1.66399977E-02, -1.39164870E-05,
                       6.70631582E-09, -1.31079175E-12, -6.31046932E+03,
                      -7.57148375E-01]),
                NASA([1000.00, 2000.00],
                     [ 8.67869881E+00, -7.84238420E-03,  1.38956076E-05,
                      -7.33600190E-09,  1.30321431E-12, -8.45079729E+03,
                      -4.20966823E+01])))

species(name='CH2X',
        atoms='C:1 H:2 X:1',
        thermo=(NASA([298.00, 1000.00],
                     [-2.26602367E+00,  2.92517765E-02, -4.32728797E-05,
                       3.30655723E-08, -9.93242641E-12, -2.23619445E+02,
                       8.22751288E+00]),
                NASA([1000.00, 2000.00],
                     [ 6.82572636E+00, -5.17192506E-03,  9.19551938E-06,
                      -4.87101486E-09,  8.67713091E-13, -2.26886621E+03,
                      -3.64410753E+01])))

species(name='CHX',
        atoms='C:1 H:1 X:1',
        thermo=(NASA([298.00, 1000.00],
                     [-3.00950779E+00,  3.02193341E-02, -4.99546294E-05,
                       3.99478464E-08, -1.23021593E-11, -3.13353859E+03,
                       1.12314464E+01]),
                NASA([1000.00, 2000.00],
                     [ 4.88482023E+00, -2.70846119E-03,  4.84648118E-06,
                      -2.58513645E-09,  4.63180319E-13, -4.75082800E+03,
                      -2.67870735E+01])))

species(name='HOX',
        atoms='H:1 O:1 X:1',
        thermo=(NASA([298.00, 1000.00],
                     [ 1.07348583E+00,  1.72652206E-02, -3.17712232E-05,
                       2.71536568E-08, -8.69449304E-12, -1.96002909E+04,
                      -5.65622336E+00]),
                NASA([1000.00, 2000.00],
                     [ 5.01870328E+00, -1.35424298E-03,  2.27686310E-06,
                      -1.09407298E-09,  1.79396487E-13, -2.02979842E+04,
                      -2.41159621E+01])))

species(name='H2OX',
        atoms='H:2 O:1 X:1',
        thermo=(NASA([298.00, 1000.00],
                     [ 2.53777266E+00,  9.45372010E-03, -1.41325664E-05,
                       1.16730945E-08, -3.67657640E-12, -3.27590463E+04,
                      -5.36548561E+00]),
                NASA([1000.00, 2000.00],
                     [ 5.84789466E+00, -3.31526816E-03,  5.62018785E-06,
                      -2.75864893E-09,  4.61279066E-13, -3.34885608E+04,
                      -2.15622699E+01])))

species(name='CH2OX',
        atoms='C:1 H:2 O:1 X:1',
        thermo=(NASA([298.00, 1000.00],
                     [ 4.87258154E+00, -3.80708439E-03,  2.29126729E-05,
                      -2.34870004E-08,  7.95457450E-12, -2.09616356E+04,
                      -1.09618928E+01]),
                NASA([1000.00, 2000.00],
                     [ 8.42973399E+00, -6.84404724E-03,  1.22430399E-05,
                      -6.56317791E-09,  1.18019535E-12, -2.23198421E+04,
                      -3.11097315E+01])))

species(name='CH4X',
        atoms='C:1 H:4 X:1',
        thermo=(NASA([298.00, 1000.00],
                     [ 5.26247002E+00, -7.42703413E-03,  3.36472336E-05,
                      -3.29401150E-08,  1.10259250E-11, -1.16038320E+04,
                      -1.00920541E+01]),
                NASA([1000.00, 2000.00],
                     [ 9.54981008E+00, -1.03719404E-02,  1.83183536E-05,
                      -9.63332916E-09,  1.70558531E-12, -1.32717208E+04,
                      -3.45374475E+01])))

species(name='CH3OHX',
        atoms='C:1 H:4 O:1 X:1',
        thermo=(NASA([298.00, 1000.00],
                     [ 2.70506726E+00,  1.00913594E-02,  1.00260680E-05,
                      -1.80909603E-08,  7.44539499E-12, -3.09647604E+04,
                      -4.48135960E+00]),
                NASA([1000.00, 2000.00],
                     [ 1.21539459E+01, -1.13173411E-02,  2.00342036E-05,
                      -1.05724068E-08,  1.87852776E-12, -3.38115989E+04,
                      -5.44617359E+01])))

species(name='C2H6X',
        atoms='C:2 H:6 X:1',
        thermo=(NASA([298.00, 1000.00],
                     [ 3.19974851E+00,  7.93841719E-03,  2.69413164E-05,
                      -3.53453703E-08,  1.32207821E-11, -1.45807566E+04,
                      -1.67952705E+00]),
                NASA([1000.00, 2000.00],
                     [ 1.59169609E+01, -1.75616860E-02,  3.12255463E-05,
                      -1.65874969E-08,  2.96156965E-12, -1.86136199E+04,
                      -6.98567509E+01])))

species(name='C3H8X',
        atoms='C:3 H:8 X:1',
        thermo=(NASA([298.00, 1000.00],
                     [ 2.15856144E+00,  2.48539972E-02,  1.53525973E-05,
                      -3.25302366E-08,  1.35067652E-11, -1.91235202E+04,
                      -8.74139325E+00]),
                NASA([1000.00, 2000.00],
                     [ 2.32832355E+01, -2.45407014E-02,  4.37313468E-05,
                      -2.33036993E-08,  4.17150294E-12, -2.54500100E+04,
                      -1.20201845E+02])))

species(name='C2H4X',
        atoms='C:2 H:4 X:1',
        thermo=(NASA([298.00, 1000.00],
                     [ 1.30720584E+00,  1.65960781E-02, -1.65593894E-06,
                      -8.53643563E-09,  4.49817961E-12, -4.71848181E+02,
                       1.01377612E+00]),
                NASA([1000.00, 2000.00],
                     [ 1.21842322E+01, -1.15021314E-02,  2.03950515E-05,
                      -1.07880418E-08,  1.91997845E-12, -3.57155818E+03,
                      -5.56542603E+01])))
